<routes>
    <vType id="bus" length="15" maxSpeed="30" accel="2.5" sigma="0.1" speedDev="0.2" vClass="bus" />
    <flow id="bus" type="bus" from="beg" to="end" begin="0" end="0" number="5" departPos="last"/>
    <vType id="pkw" length="5" maxSpeed="50" accel="2.60" sigma="0.2" speedDev="0.2" vClass="passenger" />
    <flow id="pkw" type="pkw" from="beg" to="end" begin="0" end="0" number="66" departPos="last"/>
    <vType id="tram" length="40" maxSpeed="13" accel=".5" sigma="0.1" speedDev="0.2" vClass="rail_urban" />
    <flow id="tram" type="tram" from="beg" to="end" begin="0" end="0" number="2" departPos="last"/>
    <vType id="bike" length="1.8" width="0.8" maxSpeed="7.5" accel=".8" sigma="0.2" speedDev="0.2" vClass="bicycle" />
    <flow id="bike" type="bike" from="beg" to="end" begin="0" end="0" number="100" departPos="last"/>
</routes>