<?xml version="1.0" encoding="UTF-8"?>

<!-- generated on 2021-12-13 01:19:42 by Eclipse SUMO netedit Version 1.9.2
<configuration xmlns:xsi="http://www.w3.org/2001/XMLSchema-instance" xsi:noNamespaceSchemaLocation="http://sumo.dlr.de/xsd/netconvertConfiguration.xsd">

    <output>
        <output-file value="C:\Users\saurabh\DDS%20Project\sumo%20tutorials\map.net.xml"/>
    </output>

    <processing>
        <offset.disable-normalization value="true"/>
    </processing>

    <junctions>
        <no-turnarounds value="true"/>
    </junctions>

    <netedit>
        <route-files value="C:\Users\saurabh\DDS%20Project\sumo%20tutorials\map.rou.xml"/>
    </netedit>

    <report>
        <aggregate-warnings value="5"/>
    </report>

</configuration>
-->

<net version="1.9" junctionCornerDetail="5" limitTurnSpeed="5.50" xmlns:xsi="http://www.w3.org/2001/XMLSchema-instance" xsi:noNamespaceSchemaLocation="http://sumo.dlr.de/xsd/net_file.xsd">

    <location netOffset="0.00,0.00" convBoundary="-14.59,-27.94,369.64,209.72" origBoundary="10000000000.00,10000000000.00,-10000000000.00,-10000000000.00" projParameter="!"/>

    <edge id=":1_0" function="internal">
        <lane id=":1_0_0" index="0" speed="3.95" length="2.00" shape="147.01,-29.40 147.52,-29.55 147.99,-29.54 148.43,-29.37 148.84,-29.03"/>
    </edge>

    <edge id="gneE1" from="0" to="1" priority="-1">
        <lane id="gneE1_0" index="0" speed="13.89" length="177.92" shape="-15.24,43.59 147.01,-29.40"/>
    </edge>
    <edge id="gneE2" from="1" to="2" priority="-1">
        <lane id="gneE2_0" index="0" speed="13.89" length="325.20" shape="148.84,-29.03 370.81,208.63"/>
    </edge>

    <junction id="0" type="dead_end" x="-14.59" y="45.05" incLanes="" intLanes="" shape="-14.59,45.05 -15.90,42.13"/>
    <junction id="1" type="priority" x="147.67" y="-27.94" incLanes="gneE1_0" intLanes=":1_0_0" shape="147.67,-27.94 150.01,-30.12 148.91,-30.95 148.31,-31.14 147.69,-31.19 147.04,-31.10 146.36,-30.86">
        <request index="0" response="0" foes="0" cont="0"/>
    </junction>
    <junction id="2" type="dead_end" x="369.64" y="209.72" incLanes="gneE2_0" intLanes="" shape="371.98,207.53 369.64,209.72"/>

    <connection from="gneE1" to="gneE2" fromLane="0" toLane="0" via=":1_0_0" dir="l" state="M"/>

    <connection from=":1_0" to="gneE2" fromLane="0" toLane="0" dir="l" state="M"/>

</net>
