<?xml version="1.0" encoding="UTF-8"?>

<!-- generated on 2021-12-13 02:56:24 by Eclipse SUMO netedit Version 1.9.2
<configuration xmlns:xsi="http://www.w3.org/2001/XMLSchema-instance" xsi:noNamespaceSchemaLocation="http://sumo.dlr.de/xsd/netconvertConfiguration.xsd">

    <output>
        <output-file value="C:\Users\saurabh\DDS%20Project\sumo%20tutorials\new.net.xml"/>
    </output>

    <processing>
        <offset.disable-normalization value="true"/>
    </processing>

    <junctions>
        <no-turnarounds value="true"/>
    </junctions>

    <report>
        <aggregate-warnings value="5"/>
    </report>

</configuration>
-->

<net version="1.9" junctionCornerDetail="5" limitTurnSpeed="5.50" xmlns:xsi="http://www.w3.org/2001/XMLSchema-instance" xsi:noNamespaceSchemaLocation="http://sumo.dlr.de/xsd/net_file.xsd">

    <location netOffset="0.00,0.00" convBoundary="-1000.00,0.00,3000.00,1000.00" origBoundary="10000000000.00,10000000000.00,-10000000000.00,-10000000000.00" projParameter="!"/>

    <edge id=":1_0" function="internal">
        <lane id=":1_0_0" index="0" speed="13.89" length="8.00" shape="4.00,1008.00 -4.00,1008.00"/>
        <lane id=":1_0_1" index="1" speed="13.89" length="8.00" shape="4.00,1004.80 -4.00,1004.80"/>
        <lane id=":1_0_2" index="2" speed="13.89" length="8.00" shape="4.00,1001.60 -4.00,1001.60"/>
    </edge>
    <edge id=":1_3" function="internal">
        <lane id=":1_3_0" index="0" speed="13.89" length="8.54" shape="-4.00,995.20 -1.54,994.70 0.00,993.60 1.54,992.50 4.00,992.00"/>
        <lane id=":1_3_1" index="1" speed="13.89" length="8.54" shape="-4.00,998.40 -1.54,997.90 -0.00,996.80 1.54,995.70 4.00,995.20"/>
        <lane id=":1_3_2" index="2" speed="13.89" length="8.54" shape="-4.00,998.40 4.00,998.40"/>
    </edge>
    <edge id=":2_0" function="internal">
        <lane id=":2_0_0" index="0" speed="13.89" length="8.00" shape="4.00,8.00 -4.00,8.00"/>
        <lane id=":2_0_1" index="1" speed="13.89" length="8.00" shape="4.00,4.80 -4.00,4.80"/>
        <lane id=":2_0_2" index="2" speed="13.89" length="8.00" shape="4.00,1.60 -4.00,1.60"/>
    </edge>
    <edge id=":2_3" function="internal">
        <lane id=":2_3_0" index="0" speed="13.89" length="8.54" shape="-4.00,-4.80 -1.54,-5.30 -0.00,-6.40 1.54,-7.50 4.00,-8.00"/>
        <lane id=":2_3_1" index="1" speed="13.89" length="8.54" shape="-4.00,-1.60 -1.54,-2.10 0.00,-3.20 1.54,-4.30 4.00,-4.80"/>
        <lane id=":2_3_2" index="2" speed="13.89" length="8.54" shape="-4.00,-1.60 4.00,-1.60"/>
    </edge>
    <edge id=":3_0" function="internal">
        <lane id=":3_0_0" index="0" speed="6.51" length="9.03" shape="992.00,13.60 991.65,11.15 990.60,9.40 988.85,8.35 986.40,8.00"/>
    </edge>
    <edge id=":3_1" function="internal">
        <lane id=":3_1_0" index="0" speed="11.36" length="29.67" shape="995.20,13.60 996.35,5.55 999.80,-0.20 1005.55,-3.65 1013.60,-4.80"/>
        <lane id=":3_1_1" index="1" speed="10.36" length="24.51" shape="998.40,13.60 999.35,6.95 1002.20,2.20 1006.95,-0.65 1013.60,-1.60"/>
    </edge>
    <edge id=":3_3" function="internal">
        <lane id=":3_3_0" index="0" speed="6.51" length="9.03" shape="1013.60,8.00 1011.15,8.35 1009.40,9.40 1008.35,11.15 1008.00,13.60"/>
    </edge>
    <edge id=":3_4" function="internal">
        <lane id=":3_4_0" index="0" speed="13.89" length="27.20" shape="1013.60,8.00 986.40,8.00"/>
        <lane id=":3_4_1" index="1" speed="13.89" length="27.20" shape="1013.60,4.80 986.40,4.80"/>
        <lane id=":3_4_2" index="2" speed="13.89" length="27.20" shape="1013.60,1.60 986.40,1.60"/>
    </edge>
    <edge id=":3_7" function="internal">
        <lane id=":3_7_0" index="0" speed="13.89" length="27.20" shape="986.40,-8.00 1013.60,-8.00"/>
        <lane id=":3_7_1" index="1" speed="13.89" length="27.20" shape="986.40,-4.80 1013.60,-4.80"/>
        <lane id=":3_7_2" index="2" speed="13.89" length="27.20" shape="986.40,-1.60 1013.60,-1.60"/>
    </edge>
    <edge id=":3_10" function="internal">
        <lane id=":3_10_0" index="0" speed="10.88" length="9.57" shape="986.40,-1.60 994.45,-0.65 995.76,-0.00"/>
        <lane id=":3_10_1" index="1" speed="10.36" length="7.98" shape="986.40,-1.60 993.05,-0.65 994.13,-0.00"/>
    </edge>
    <edge id=":3_12" function="internal">
        <lane id=":3_12_0" index="0" speed="10.88" length="17.57" shape="995.76,-0.00 1000.20,2.20 1003.65,6.95 1004.80,13.60"/>
    </edge>
    <edge id=":3_13" function="internal">
        <lane id=":3_13_0" index="0" speed="10.36" length="16.53" shape="994.13,-0.00 997.80,2.20 1000.65,6.95 1001.60,13.60"/>
    </edge>
    <edge id=":4_0" function="internal">
        <lane id=":4_0_0" index="0" speed="13.89" length="0.10" shape="2000.00,8.00 2000.00,8.00"/>
        <lane id=":4_0_1" index="1" speed="13.89" length="0.10" shape="2000.00,4.80 2000.00,4.80"/>
        <lane id=":4_0_2" index="2" speed="13.89" length="0.10" shape="2000.00,1.60 2000.00,1.60"/>
    </edge>
    <edge id=":4_3" function="internal">
        <lane id=":4_3_0" index="0" speed="13.89" length="0.10" shape="2000.00,-8.00 2000.00,-8.00"/>
        <lane id=":4_3_1" index="1" speed="13.89" length="0.10" shape="2000.00,-4.80 2000.00,-4.80"/>
        <lane id=":4_3_2" index="2" speed="13.89" length="0.10" shape="2000.00,-1.60 2000.00,-1.60"/>
    </edge>
    <edge id=":5_0" function="internal">
        <lane id=":5_0_0" index="0" speed="13.89" length="0.10" shape="2000.00,1008.00 2000.00,1008.00"/>
        <lane id=":5_0_1" index="1" speed="13.89" length="0.10" shape="2000.00,1004.80 2000.00,1004.80"/>
        <lane id=":5_0_2" index="2" speed="13.89" length="0.10" shape="2000.00,1001.60 2000.00,1001.60"/>
    </edge>
    <edge id=":5_3" function="internal">
        <lane id=":5_3_0" index="0" speed="13.89" length="0.10" shape="2000.00,992.00 2000.00,992.00"/>
        <lane id=":5_3_1" index="1" speed="13.89" length="0.10" shape="2000.00,995.20 2000.00,995.20"/>
        <lane id=":5_3_2" index="2" speed="13.89" length="0.10" shape="2000.00,998.40 2000.00,998.40"/>
    </edge>
    <edge id=":6_0" function="internal">
        <lane id=":6_0_0" index="0" speed="13.89" length="27.20" shape="1013.60,1008.00 986.40,1008.00"/>
        <lane id=":6_0_1" index="1" speed="13.89" length="27.20" shape="1013.60,1004.80 986.40,1004.80"/>
        <lane id=":6_0_2" index="2" speed="13.89" length="27.20" shape="1013.60,1001.60 986.40,1001.60"/>
    </edge>
    <edge id=":6_3" function="internal">
        <lane id=":6_3_0" index="0" speed="10.88" length="9.57" shape="1013.60,1001.60 1005.55,1000.65 1004.24,1000.00"/>
        <lane id=":6_3_1" index="1" speed="10.36" length="7.98" shape="1013.60,1001.60 1006.95,1000.65 1005.87,1000.00"/>
    </edge>
    <edge id=":6_12" function="internal">
        <lane id=":6_12_0" index="0" speed="10.88" length="17.57" shape="1004.24,1000.00 999.80,997.80 996.35,993.05 995.20,986.40"/>
    </edge>
    <edge id=":6_13" function="internal">
        <lane id=":6_13_0" index="0" speed="10.36" length="16.53" shape="1005.87,1000.00 1002.20,997.80 999.35,993.05 998.40,986.40"/>
    </edge>
    <edge id=":6_5" function="internal">
        <lane id=":6_5_0" index="0" speed="6.51" length="9.03" shape="1008.00,986.40 1008.35,988.85 1009.40,990.60 1011.15,991.65 1013.60,992.00"/>
    </edge>
    <edge id=":6_6" function="internal">
        <lane id=":6_6_0" index="0" speed="11.36" length="29.67" shape="1004.80,986.40 1003.65,994.45 1000.20,1000.20 994.45,1003.65 986.40,1004.80"/>
        <lane id=":6_6_1" index="1" speed="10.36" length="24.51" shape="1001.60,986.40 1000.65,993.05 997.80,997.80 993.05,1000.65 986.40,1001.60"/>
    </edge>
    <edge id=":6_8" function="internal">
        <lane id=":6_8_0" index="0" speed="6.51" length="9.03" shape="986.40,992.00 988.85,991.65 990.60,990.60 991.65,988.85 992.00,986.40"/>
    </edge>
    <edge id=":6_9" function="internal">
        <lane id=":6_9_0" index="0" speed="13.89" length="27.20" shape="986.40,992.00 1013.60,992.00"/>
        <lane id=":6_9_1" index="1" speed="13.89" length="27.20" shape="986.40,995.20 1013.60,995.20"/>
        <lane id=":6_9_2" index="2" speed="13.89" length="27.20" shape="986.40,998.40 1013.60,998.40"/>
    </edge>
    <edge id=":911_0" function="internal">
        <lane id=":911_0_0" index="0" speed="13.89" length="0.10" shape="-500.00,1008.00 -500.00,1008.00"/>
        <lane id=":911_0_1" index="1" speed="13.89" length="0.10" shape="-500.00,1004.80 -500.00,1004.80"/>
        <lane id=":911_0_2" index="2" speed="13.89" length="0.10" shape="-500.00,1001.60 -500.00,1001.60"/>
    </edge>
    <edge id=":911_3" function="internal">
        <lane id=":911_3_0" index="0" speed="13.89" length="0.10" shape="-500.00,995.20 -500.00,995.20"/>
        <lane id=":911_3_1" index="1" speed="13.89" length="0.10" shape="-500.00,998.40 -500.00,998.40"/>
    </edge>
    <edge id=":912_0" function="internal">
        <lane id=":912_0_0" index="0" speed="13.89" length="0.10" shape="-500.00,8.00 -500.00,8.00"/>
        <lane id=":912_0_1" index="1" speed="13.89" length="0.10" shape="-500.00,4.80 -500.00,4.80"/>
        <lane id=":912_0_2" index="2" speed="13.89" length="0.10" shape="-500.00,1.60 -500.00,1.60"/>
    </edge>
    <edge id=":912_3" function="internal">
        <lane id=":912_3_0" index="0" speed="13.89" length="0.10" shape="-500.00,-4.80 -500.00,-4.80"/>
        <lane id=":912_3_1" index="1" speed="13.89" length="0.10" shape="-500.00,-1.60 -500.00,-1.60"/>
    </edge>
    <edge id=":913_0" function="internal">
        <lane id=":913_0_0" index="0" speed="13.89" length="0.10" shape="2500.00,8.00 2500.00,8.00"/>
        <lane id=":913_0_1" index="1" speed="13.89" length="0.10" shape="2500.00,4.80 2500.00,4.80"/>
        <lane id=":913_0_2" index="2" speed="13.89" length="0.10" shape="2500.00,1.60 2500.00,1.60"/>
    </edge>
    <edge id=":913_3" function="internal">
        <lane id=":913_3_0" index="0" speed="13.89" length="0.10" shape="2500.00,-8.00 2500.00,-8.00"/>
        <lane id=":913_3_1" index="1" speed="13.89" length="0.10" shape="2500.00,-4.80 2500.00,-4.80"/>
        <lane id=":913_3_2" index="2" speed="13.89" length="0.10" shape="2500.00,-1.60 2500.00,-1.60"/>
    </edge>

    <edge id="-gneE0" from="6" to="3" priority="-1">
        <lane id="-gneE0_0" index="0" speed="13.89" length="972.80" shape="992.00,986.40 992.00,13.60"/>
        <lane id="-gneE0_1" index="1" speed="13.89" length="972.80" shape="995.20,986.40 995.20,13.60"/>
        <lane id="-gneE0_2" index="2" speed="13.89" length="972.80" shape="998.40,986.40 998.40,13.60"/>
    </edge>
    <edge id="-gneE1" from="911" to="91" priority="-1">
        <lane id="-gneE1_0" index="0" speed="13.89" length="500.00" shape="-500.00,1008.00 -1000.00,1008.00"/>
        <lane id="-gneE1_1" index="1" speed="13.89" length="500.00" shape="-500.00,1004.80 -1000.00,1004.80"/>
        <lane id="-gneE1_2" index="2" speed="13.89" length="500.00" shape="-500.00,1001.60 -1000.00,1001.60"/>
    </edge>
    <edge id="-gneE10" from="3" to="2" priority="-1">
        <lane id="-gneE10_0" index="0" speed="13.89" length="982.40" shape="986.40,8.00 4.00,8.00"/>
        <lane id="-gneE10_1" index="1" speed="13.89" length="982.40" shape="986.40,4.80 4.00,4.80"/>
        <lane id="-gneE10_2" index="2" speed="13.89" length="982.40" shape="986.40,1.60 4.00,1.60"/>
    </edge>
    <edge id="-gneE11" from="92" to="912" priority="-1">
        <lane id="-gneE11_0" index="0" speed="13.89" length="500.00" shape="-1000.00,-4.80 -500.00,-4.80"/>
        <lane id="-gneE11_1" index="1" speed="13.89" length="500.00" shape="-1000.00,-1.60 -500.00,-1.60"/>
    </edge>
    <edge id="-gneE12" from="1" to="911" priority="-1">
        <lane id="-gneE12_0" index="0" speed="13.89" length="496.00" shape="-4.00,1008.00 -500.00,1008.00"/>
        <lane id="-gneE12_1" index="1" speed="13.89" length="496.00" shape="-4.00,1004.80 -500.00,1004.80"/>
        <lane id="-gneE12_2" index="2" speed="13.89" length="496.00" shape="-4.00,1001.60 -500.00,1001.60"/>
    </edge>
    <edge id="-gneE13" from="6" to="1" priority="-1">
        <lane id="-gneE13_0" index="0" speed="13.89" length="982.40" shape="986.40,1008.00 4.00,1008.00"/>
        <lane id="-gneE13_1" index="1" speed="13.89" length="982.40" shape="986.40,1004.80 4.00,1004.80"/>
        <lane id="-gneE13_2" index="2" speed="13.89" length="982.40" shape="986.40,1001.60 4.00,1001.60"/>
    </edge>
    <edge id="-gneE2" from="6" to="5" priority="-1">
        <lane id="-gneE2_0" index="0" speed="13.89" length="986.40" shape="1013.60,992.00 2000.00,992.00"/>
        <lane id="-gneE2_1" index="1" speed="13.89" length="986.40" shape="1013.60,995.20 2000.00,995.20"/>
        <lane id="-gneE2_2" index="2" speed="13.89" length="986.40" shape="1013.60,998.40 2000.00,998.40"/>
    </edge>
    <edge id="-gneE3" from="2" to="912" priority="-1">
        <lane id="-gneE3_0" index="0" speed="13.89" length="496.00" shape="-4.00,8.00 -500.00,8.00"/>
        <lane id="-gneE3_1" index="1" speed="13.89" length="496.00" shape="-4.00,4.80 -500.00,4.80"/>
        <lane id="-gneE3_2" index="2" speed="13.89" length="496.00" shape="-4.00,1.60 -500.00,1.60"/>
    </edge>
    <edge id="-gneE5" from="913" to="93" priority="-1">
        <lane id="-gneE5_0" index="0" speed="13.89" length="500.00" shape="2500.00,-8.00 3000.00,-8.00"/>
        <lane id="-gneE5_1" index="1" speed="13.89" length="500.00" shape="2500.00,-4.80 3000.00,-4.80"/>
        <lane id="-gneE5_2" index="2" speed="13.89" length="500.00" shape="2500.00,-1.60 3000.00,-1.60"/>
    </edge>
    <edge id="-gneE7" from="5" to="94" priority="-1">
        <lane id="-gneE7_0" index="0" speed="13.89" length="1000.00" shape="2000.00,992.00 3000.00,992.00"/>
        <lane id="-gneE7_1" index="1" speed="13.89" length="1000.00" shape="2000.00,995.20 3000.00,995.20"/>
        <lane id="-gneE7_2" index="2" speed="13.89" length="1000.00" shape="2000.00,998.40 3000.00,998.40"/>
    </edge>
    <edge id="-gneE8" from="4" to="913" priority="-1">
        <lane id="-gneE8_0" index="0" speed="13.89" length="500.00" shape="2000.00,-8.00 2500.00,-8.00"/>
        <lane id="-gneE8_1" index="1" speed="13.89" length="500.00" shape="2000.00,-4.80 2500.00,-4.80"/>
        <lane id="-gneE8_2" index="2" speed="13.89" length="500.00" shape="2000.00,-1.60 2500.00,-1.60"/>
    </edge>
    <edge id="-gneE9" from="3" to="4" priority="-1">
        <lane id="-gneE9_0" index="0" speed="13.89" length="986.40" shape="1013.60,-8.00 2000.00,-8.00"/>
        <lane id="-gneE9_1" index="1" speed="13.89" length="986.40" shape="1013.60,-4.80 2000.00,-4.80"/>
        <lane id="-gneE9_2" index="2" speed="13.89" length="986.40" shape="1013.60,-1.60 2000.00,-1.60"/>
    </edge>
    <edge id="gneE0" from="3" to="6" priority="-1">
        <lane id="gneE0_0" index="0" speed="13.89" length="972.80" shape="1008.00,13.60 1008.00,986.40"/>
        <lane id="gneE0_1" index="1" speed="13.89" length="972.80" shape="1004.80,13.60 1004.80,986.40"/>
        <lane id="gneE0_2" index="2" speed="13.89" length="972.80" shape="1001.60,13.60 1001.60,986.40"/>
    </edge>
    <edge id="gneE1" from="91" to="911" priority="-1">
        <lane id="gneE1_0" index="0" speed="13.89" length="500.00" shape="-1000.00,995.20 -500.00,995.20"/>
        <lane id="gneE1_1" index="1" speed="13.89" length="500.00" shape="-1000.00,998.40 -500.00,998.40"/>
    </edge>
    <edge id="gneE10" from="2" to="3" priority="-1">
        <lane id="gneE10_0" index="0" speed="13.89" length="982.40" shape="4.00,-8.00 986.40,-8.00"/>
        <lane id="gneE10_1" index="1" speed="13.89" length="982.40" shape="4.00,-4.80 986.40,-4.80"/>
        <lane id="gneE10_2" index="2" speed="13.89" length="982.40" shape="4.00,-1.60 986.40,-1.60"/>
    </edge>
    <edge id="gneE11" from="912" to="92" priority="-1">
        <lane id="gneE11_0" index="0" speed="13.89" length="500.00" shape="-500.00,8.00 -1000.00,8.00"/>
        <lane id="gneE11_1" index="1" speed="13.89" length="500.00" shape="-500.00,4.80 -1000.00,4.80"/>
        <lane id="gneE11_2" index="2" speed="13.89" length="500.00" shape="-500.00,1.60 -1000.00,1.60"/>
    </edge>
    <edge id="gneE12" from="911" to="1" priority="-1">
        <lane id="gneE12_0" index="0" speed="13.89" length="496.00" shape="-500.00,995.20 -4.00,995.20"/>
        <lane id="gneE12_1" index="1" speed="13.89" length="496.00" shape="-500.00,998.40 -4.00,998.40"/>
    </edge>
    <edge id="gneE13" from="1" to="6" priority="-1">
        <lane id="gneE13_0" index="0" speed="13.89" length="982.40" shape="4.00,992.00 986.40,992.00"/>
        <lane id="gneE13_1" index="1" speed="13.89" length="982.40" shape="4.00,995.20 986.40,995.20"/>
        <lane id="gneE13_2" index="2" speed="13.89" length="982.40" shape="4.00,998.40 986.40,998.40"/>
    </edge>
    <edge id="gneE2" from="5" to="6" priority="-1">
        <lane id="gneE2_0" index="0" speed="13.89" length="986.40" shape="2000.00,1008.00 1013.60,1008.00"/>
        <lane id="gneE2_1" index="1" speed="13.89" length="986.40" shape="2000.00,1004.80 1013.60,1004.80"/>
        <lane id="gneE2_2" index="2" speed="13.89" length="986.40" shape="2000.00,1001.60 1013.60,1001.60"/>
    </edge>
    <edge id="gneE3" from="912" to="2" priority="-1">
        <lane id="gneE3_0" index="0" speed="13.89" length="496.00" shape="-500.00,-4.80 -4.00,-4.80"/>
        <lane id="gneE3_1" index="1" speed="13.89" length="496.00" shape="-500.00,-1.60 -4.00,-1.60"/>
    </edge>
    <edge id="gneE5" from="93" to="913" priority="-1">
        <lane id="gneE5_0" index="0" speed="13.89" length="500.00" shape="3000.00,8.00 2500.00,8.00"/>
        <lane id="gneE5_1" index="1" speed="13.89" length="500.00" shape="3000.00,4.80 2500.00,4.80"/>
        <lane id="gneE5_2" index="2" speed="13.89" length="500.00" shape="3000.00,1.60 2500.00,1.60"/>
    </edge>
    <edge id="gneE7" from="94" to="5" priority="-1">
        <lane id="gneE7_0" index="0" speed="13.89" length="1000.00" shape="3000.00,1008.00 2000.00,1008.00"/>
        <lane id="gneE7_1" index="1" speed="13.89" length="1000.00" shape="3000.00,1004.80 2000.00,1004.80"/>
        <lane id="gneE7_2" index="2" speed="13.89" length="1000.00" shape="3000.00,1001.60 2000.00,1001.60"/>
    </edge>
    <edge id="gneE8" from="913" to="4" priority="-1">
        <lane id="gneE8_0" index="0" speed="13.89" length="500.00" shape="2500.00,8.00 2000.00,8.00"/>
        <lane id="gneE8_1" index="1" speed="13.89" length="500.00" shape="2500.00,4.80 2000.00,4.80"/>
        <lane id="gneE8_2" index="2" speed="13.89" length="500.00" shape="2500.00,1.60 2000.00,1.60"/>
    </edge>
    <edge id="gneE9" from="4" to="3" priority="-1">
        <lane id="gneE9_0" index="0" speed="13.89" length="986.40" shape="2000.00,8.00 1013.60,8.00"/>
        <lane id="gneE9_1" index="1" speed="13.89" length="986.40" shape="2000.00,4.80 1013.60,4.80"/>
        <lane id="gneE9_2" index="2" speed="13.89" length="986.40" shape="2000.00,1.60 1013.60,1.60"/>
    </edge>

    <junction id="1" type="priority" x="0.00" y="1000.00" incLanes="-gneE13_0 -gneE13_1 -gneE13_2 gneE12_0 gneE12_1" intLanes=":1_0_0 :1_0_1 :1_0_2 :1_3_0 :1_3_1 :1_3_2" shape="4.00,1009.60 4.00,990.40 0.97,991.23 -0.97,992.77 -2.21,993.36 -4.00,993.60 -4.00,1009.60">
        <request index="0" response="000000" foes="000000" cont="0"/>
        <request index="1" response="000000" foes="000000" cont="0"/>
        <request index="2" response="000000" foes="000000" cont="0"/>
        <request index="3" response="000000" foes="000000" cont="0"/>
        <request index="4" response="000000" foes="000000" cont="0"/>
        <request index="5" response="000000" foes="000000" cont="0"/>
    </junction>
    <junction id="2" type="priority" x="0.00" y="0.00" incLanes="-gneE10_0 -gneE10_1 -gneE10_2 gneE3_0 gneE3_1" intLanes=":2_0_0 :2_0_1 :2_0_2 :2_3_0 :2_3_1 :2_3_2" shape="4.00,9.60 4.00,-9.60 0.97,-8.77 -0.97,-7.23 -2.21,-6.64 -4.00,-6.40 -4.00,9.60">
        <request index="0" response="000000" foes="000000" cont="0"/>
        <request index="1" response="000000" foes="000000" cont="0"/>
        <request index="2" response="000000" foes="000000" cont="0"/>
        <request index="3" response="000000" foes="000000" cont="0"/>
        <request index="4" response="000000" foes="000000" cont="0"/>
        <request index="5" response="000000" foes="000000" cont="0"/>
    </junction>
    <junction id="3" type="priority" x="1000.00" y="0.00" incLanes="-gneE0_0 -gneE0_1 -gneE0_2 gneE9_0 gneE9_1 gneE9_2 gneE10_0 gneE10_1 gneE10_2" intLanes=":3_0_0 :3_1_0 :3_1_1 :3_3_0 :3_4_0 :3_4_1 :3_4_2 :3_7_0 :3_7_1 :3_7_2 :3_12_0 :3_13_0" shape="990.40,13.60 1009.60,13.60 1010.04,11.38 1010.60,10.60 1011.38,10.04 1012.38,9.71 1013.60,9.60 1013.60,-9.60 986.40,-9.60 986.40,9.60 988.62,10.04 989.40,10.60 989.96,11.38 990.29,12.38">
        <request index="0"  response="000001110000" foes="000001110000" cont="0"/>
        <request index="1"  response="111111110000" foes="111111110000" cont="0"/>
        <request index="2"  response="111111110000" foes="111111110000" cont="0"/>
        <request index="3"  response="000000000000" foes="000000000000" cont="0"/>
        <request index="4"  response="000000000000" foes="110000000111" cont="0"/>
        <request index="5"  response="000000000000" foes="110000000111" cont="0"/>
        <request index="6"  response="000000000000" foes="110000000111" cont="0"/>
        <request index="7"  response="000000000000" foes="000000000110" cont="0"/>
        <request index="8"  response="000000000000" foes="000000000110" cont="0"/>
        <request index="9"  response="000000000000" foes="000000000110" cont="0"/>
        <request index="10" response="000001110000" foes="000001110110" cont="1"/>
        <request index="11" response="000001110000" foes="000001110110" cont="1"/>
    </junction>
    <junction id="4" type="priority" x="2000.00" y="0.00" incLanes="gneE8_0 gneE8_1 gneE8_2 -gneE9_0 -gneE9_1 -gneE9_2" intLanes=":4_0_0 :4_0_1 :4_0_2 :4_3_0 :4_3_1 :4_3_2" shape="2000.00,9.60 2000.00,-9.60 2000.00,9.60">
        <request index="0" response="000000" foes="000000" cont="0"/>
        <request index="1" response="000000" foes="000000" cont="0"/>
        <request index="2" response="000000" foes="000000" cont="0"/>
        <request index="3" response="000000" foes="000000" cont="0"/>
        <request index="4" response="000000" foes="000000" cont="0"/>
        <request index="5" response="000000" foes="000000" cont="0"/>
    </junction>
    <junction id="5" type="priority" x="2000.00" y="1000.00" incLanes="gneE7_0 gneE7_1 gneE7_2 -gneE2_0 -gneE2_1 -gneE2_2" intLanes=":5_0_0 :5_0_1 :5_0_2 :5_3_0 :5_3_1 :5_3_2" shape="2000.00,1009.60 2000.00,990.40 2000.00,1009.60">
        <request index="0" response="000000" foes="000000" cont="0"/>
        <request index="1" response="000000" foes="000000" cont="0"/>
        <request index="2" response="000000" foes="000000" cont="0"/>
        <request index="3" response="000000" foes="000000" cont="0"/>
        <request index="4" response="000000" foes="000000" cont="0"/>
        <request index="5" response="000000" foes="000000" cont="0"/>
    </junction>
    <junction id="6" type="priority" x="1000.00" y="1000.00" incLanes="gneE2_0 gneE2_1 gneE2_2 gneE0_0 gneE0_1 gneE0_2 gneE13_0 gneE13_1 gneE13_2" intLanes=":6_0_0 :6_0_1 :6_0_2 :6_12_0 :6_13_0 :6_5_0 :6_6_0 :6_6_1 :6_8_0 :6_9_0 :6_9_1 :6_9_2" shape="1013.60,1009.60 1013.60,990.40 1011.38,989.96 1010.60,989.40 1010.04,988.62 1009.71,987.62 1009.60,986.40 990.40,986.40 989.96,988.62 989.40,989.40 988.62,989.96 987.62,990.29 986.40,990.40 986.40,1009.60">
        <request index="0"  response="000000000000" foes="000011000000" cont="0"/>
        <request index="1"  response="000000000000" foes="000011000000" cont="0"/>
        <request index="2"  response="000000000000" foes="000011000000" cont="0"/>
        <request index="3"  response="111000000000" foes="111011000000" cont="1"/>
        <request index="4"  response="111000000000" foes="111011000000" cont="1"/>
        <request index="5"  response="111000000000" foes="111000000000" cont="0"/>
        <request index="6"  response="111000011111" foes="111000011111" cont="0"/>
        <request index="7"  response="111000011111" foes="111000011111" cont="0"/>
        <request index="8"  response="000000000000" foes="000000000000" cont="0"/>
        <request index="9"  response="000000000000" foes="000011111000" cont="0"/>
        <request index="10" response="000000000000" foes="000011111000" cont="0"/>
        <request index="11" response="000000000000" foes="000011111000" cont="0"/>
    </junction>
    <junction id="91" type="dead_end" x="-1000.00" y="1000.00" incLanes="-gneE1_0 -gneE1_1 -gneE1_2" intLanes="" shape="-1000.00,1000.00 -1000.00,1009.60 -1000.00,1000.00"/>
    <junction id="911" type="priority" x="-500.00" y="1000.00" incLanes="-gneE12_0 -gneE12_1 -gneE12_2 gneE1_0 gneE1_1" intLanes=":911_0_0 :911_0_1 :911_0_2 :911_3_0 :911_3_1" shape="-500.00,1009.60 -500.00,993.60 -500.00,1009.60">
        <request index="0" response="00000" foes="00000" cont="0"/>
        <request index="1" response="00000" foes="00000" cont="0"/>
        <request index="2" response="00000" foes="00000" cont="0"/>
        <request index="3" response="00000" foes="00000" cont="0"/>
        <request index="4" response="00000" foes="00000" cont="0"/>
    </junction>
    <junction id="912" type="priority" x="-500.00" y="0.00" incLanes="-gneE3_0 -gneE3_1 -gneE3_2 -gneE11_0 -gneE11_1" intLanes=":912_0_0 :912_0_1 :912_0_2 :912_3_0 :912_3_1" shape="-500.00,9.60 -500.00,-6.40 -500.00,9.60">
        <request index="0" response="00000" foes="00000" cont="0"/>
        <request index="1" response="00000" foes="00000" cont="0"/>
        <request index="2" response="00000" foes="00000" cont="0"/>
        <request index="3" response="00000" foes="00000" cont="0"/>
        <request index="4" response="00000" foes="00000" cont="0"/>
    </junction>
    <junction id="913" type="priority" x="2500.00" y="0.00" incLanes="gneE5_0 gneE5_1 gneE5_2 -gneE8_0 -gneE8_1 -gneE8_2" intLanes=":913_0_0 :913_0_1 :913_0_2 :913_3_0 :913_3_1 :913_3_2" shape="2500.00,9.60 2500.00,-9.60 2500.00,9.60">
        <request index="0" response="000000" foes="000000" cont="0"/>
        <request index="1" response="000000" foes="000000" cont="0"/>
        <request index="2" response="000000" foes="000000" cont="0"/>
        <request index="3" response="000000" foes="000000" cont="0"/>
        <request index="4" response="000000" foes="000000" cont="0"/>
        <request index="5" response="000000" foes="000000" cont="0"/>
    </junction>
    <junction id="92" type="dead_end" x="-1000.00" y="0.00" incLanes="gneE11_0 gneE11_1 gneE11_2" intLanes="" shape="-1000.00,0.00 -1000.00,9.60 -1000.00,0.00"/>
    <junction id="93" type="dead_end" x="3000.00" y="0.00" incLanes="-gneE5_0 -gneE5_1 -gneE5_2" intLanes="" shape="3000.00,0.00 3000.00,-9.60 3000.00,0.00"/>
    <junction id="94" type="dead_end" x="3000.00" y="1000.00" incLanes="-gneE7_0 -gneE7_1 -gneE7_2" intLanes="" shape="3000.00,1000.00 3000.00,990.40 3000.00,1000.00"/>

    <junction id=":3_12_0" type="internal" x="995.76" y="-0.00" incLanes=":3_10_0 gneE9_0 gneE9_1 gneE9_2" intLanes=":3_1_0 :3_1_1 :3_4_0 :3_4_1 :3_4_2"/>
    <junction id=":3_13_0" type="internal" x="994.13" y="-0.00" incLanes=":3_10_1 gneE9_0 gneE9_1 gneE9_2" intLanes=":3_1_0 :3_1_1 :3_4_0 :3_4_1 :3_4_2"/>
    <junction id=":6_12_0" type="internal" x="1004.24" y="1000.00" incLanes=":6_3_0 gneE13_0 gneE13_1 gneE13_2" intLanes=":6_6_0 :6_6_1 :6_9_0 :6_9_1 :6_9_2"/>
    <junction id=":6_13_0" type="internal" x="1005.87" y="1000.00" incLanes=":6_3_1 gneE13_0 gneE13_1 gneE13_2" intLanes=":6_6_0 :6_6_1 :6_9_0 :6_9_1 :6_9_2"/>

    <connection from="-gneE0" to="-gneE10" fromLane="0" toLane="0" via=":3_0_0" dir="r" state="m"/>
    <connection from="-gneE0" to="-gneE9" fromLane="1" toLane="1" via=":3_1_0" dir="l" state="m"/>
    <connection from="-gneE0" to="-gneE9" fromLane="2" toLane="2" via=":3_1_1" dir="l" state="m"/>
    <connection from="-gneE10" to="-gneE3" fromLane="0" toLane="0" via=":2_0_0" dir="s" state="M"/>
    <connection from="-gneE10" to="-gneE3" fromLane="1" toLane="1" via=":2_0_1" dir="s" state="M"/>
    <connection from="-gneE10" to="-gneE3" fromLane="2" toLane="2" via=":2_0_2" dir="s" state="M"/>
    <connection from="-gneE11" to="gneE3" fromLane="0" toLane="0" via=":912_3_0" dir="s" state="M"/>
    <connection from="-gneE11" to="gneE3" fromLane="1" toLane="1" via=":912_3_1" dir="s" state="M"/>
    <connection from="-gneE12" to="-gneE1" fromLane="0" toLane="0" via=":911_0_0" dir="s" state="M"/>
    <connection from="-gneE12" to="-gneE1" fromLane="1" toLane="1" via=":911_0_1" dir="s" state="M"/>
    <connection from="-gneE12" to="-gneE1" fromLane="2" toLane="2" via=":911_0_2" dir="s" state="M"/>
    <connection from="-gneE13" to="-gneE12" fromLane="0" toLane="0" via=":1_0_0" dir="s" state="M"/>
    <connection from="-gneE13" to="-gneE12" fromLane="1" toLane="1" via=":1_0_1" dir="s" state="M"/>
    <connection from="-gneE13" to="-gneE12" fromLane="2" toLane="2" via=":1_0_2" dir="s" state="M"/>
    <connection from="-gneE2" to="-gneE7" fromLane="0" toLane="0" via=":5_3_0" dir="s" state="M"/>
    <connection from="-gneE2" to="-gneE7" fromLane="1" toLane="1" via=":5_3_1" dir="s" state="M"/>
    <connection from="-gneE2" to="-gneE7" fromLane="2" toLane="2" via=":5_3_2" dir="s" state="M"/>
    <connection from="-gneE3" to="gneE11" fromLane="0" toLane="0" via=":912_0_0" dir="s" state="M"/>
    <connection from="-gneE3" to="gneE11" fromLane="1" toLane="1" via=":912_0_1" dir="s" state="M"/>
    <connection from="-gneE3" to="gneE11" fromLane="2" toLane="2" via=":912_0_2" dir="s" state="M"/>
    <connection from="-gneE8" to="-gneE5" fromLane="0" toLane="0" via=":913_3_0" dir="s" state="M"/>
    <connection from="-gneE8" to="-gneE5" fromLane="1" toLane="1" via=":913_3_1" dir="s" state="M"/>